REMARK  1 active torsions:
REMARK  status: ('A' for Active; 'I' for Inactive)
REMARK    1  A    between atoms: C_2  and  C_4 
ROOT
HETATM    1  C   LIG     1      17.667  -8.707   0.000  1.00  0.00     0.022 A 
HETATM    2  C   LIG     1      18.818  -9.371   0.000  1.00  0.00     0.130 A 
HETATM    3  C   LIG     1      18.818 -10.701   0.000  1.00  0.00     0.020 A 
HETATM    4  C   LIG     1      17.667 -11.366   0.000  1.00  0.00    -0.034 A 
HETATM    5  C   LIG     1      16.515 -10.701   0.000  1.00  0.00     0.044 A 
HETATM    6  C   LIG     1      16.515  -9.371   0.000  1.00  0.00    -0.017 A 
HETATM    7  C   LIG     1      15.363  -8.707   0.000  1.00  0.00    -0.009 A 
HETATM    8  C   LIG     1      14.211  -9.371   0.000  1.00  0.00    -0.032 A 
HETATM    9  C   LIG     1      14.211 -10.701   0.000  1.00  0.00     0.085 A 
HETATM   10  C   LIG     1      15.363 -11.366   0.000  1.00  0.00     0.029 A 
HETATM   11  C   LIG     1      15.363 -12.696   0.000  1.00  0.00    -0.040 A 
HETATM   12  C   LIG     1      14.211 -13.361   0.000  1.00  0.00    -0.013 A 
HETATM   13  C   LIG     1      13.060 -12.696   0.000  1.00  0.00    -0.028 A 
HETATM   14  C   LIG     1      13.060 -11.366   0.000  1.00  0.00     0.013 A 
HETATM   15  C   LIG     1      12.395 -10.214   0.000  1.00  0.00    -0.020 A 
HETATM   16  C   LIG     1      11.730 -11.366   0.000  1.00  0.00    -0.002 A 
HETATM   17  C   LIG     1      16.515 -12.031   0.000  1.00  0.00     0.041 A 
HETATM   18  O   LIG     1      19.970  -8.707   0.000  1.00  0.00    -0.190 OA
ENDROOT
BRANCH   1  19
HETATM   19  C   LIG     1      17.667  -7.377   0.000  1.00  0.00     0.002 C 
HETATM   20  C   LIG     1      18.818  -6.712   0.000  1.00  0.00     0.000 C 
HETATM   21  C   LIG     1      16.515  -6.712   0.000  1.00  0.00     0.000 C 
ENDBRANCH   1  19
TORSDOF 1
